/*--------------------------------*- C++ -*----------------------------------*\
  =========                 |
  \\      /  F ield         | OpenFOAM: The Open Source CFD Toolbox
   \\    /   O peration     | Website:  https://openfoam.org
    \\  /    A nd           | Version:  7
     \\/     M anipulation  |
\*---------------------------------------------------------------------------*/
FoamFile
{
    version     2.0;
    format      ascii;
    class       polyBoundaryMesh;
    location    "constant/polyMesh";
    object      boundary;
}
// * * * * * * * * * * * * * * * * * * * * * * * * * * * * * * * * * * * * * //

11
(
    frontAndBack
    {
        type            patch;
        nFaces          0;
        startFace       102298;
    }
    inlet
    {
        type            patch;
        nFaces          0;
        startFace       102298;
    }
    outlet
    {
        type            patch;
        nFaces          0;
        startFace       102298;
    }
    solidWall
    {
        type            wall;
        inGroups        List<word> 1(wall);
        nFaces          6836;
        startFace       102298;
    }
    procBoundary13to1
    {
        type            processor;
        inGroups        List<word> 1(processor);
        nFaces          14;
        startFace       109134;
        matchTolerance  0.0001;
        transform       unknown;
        myProcNo        13;
        neighbProcNo    1;
    }
    procBoundary13to8
    {
        type            processor;
        inGroups        List<word> 1(processor);
        nFaces          26;
        startFace       109148;
        matchTolerance  0.0001;
        transform       unknown;
        myProcNo        13;
        neighbProcNo    8;
    }
    procBoundary13to10
    {
        type            processor;
        inGroups        List<word> 1(processor);
        nFaces          427;
        startFace       109174;
        matchTolerance  0.0001;
        transform       unknown;
        myProcNo        13;
        neighbProcNo    10;
    }
    procBoundary13to11
    {
        type            processor;
        inGroups        List<word> 1(processor);
        nFaces          671;
        startFace       109601;
        matchTolerance  0.0001;
        transform       unknown;
        myProcNo        13;
        neighbProcNo    11;
    }
    procBoundary13to12
    {
        type            processor;
        inGroups        List<word> 1(processor);
        nFaces          1334;
        startFace       110272;
        matchTolerance  0.0001;
        transform       unknown;
        myProcNo        13;
        neighbProcNo    12;
    }
    procBoundary13to14
    {
        type            processor;
        inGroups        List<word> 1(processor);
        nFaces          11;
        startFace       111606;
        matchTolerance  0.0001;
        transform       unknown;
        myProcNo        13;
        neighbProcNo    14;
    }
    procBoundary13to15
    {
        type            processor;
        inGroups        List<word> 1(processor);
        nFaces          12;
        startFace       111617;
        matchTolerance  0.0001;
        transform       unknown;
        myProcNo        13;
        neighbProcNo    15;
    }
)

// ************************************************************************* //
