/*--------------------------------*- C++ -*----------------------------------*\
  =========                 |
  \\      /  F ield         | OpenFOAM: The Open Source CFD Toolbox
   \\    /   O peration     | Website:  https://openfoam.org
    \\  /    A nd           | Version:  7
     \\/     M anipulation  |
\*---------------------------------------------------------------------------*/
FoamFile
{
    version     2.0;
    format      ascii;
    class       polyBoundaryMesh;
    location    "constant/polyMesh";
    object      boundary;
}
// * * * * * * * * * * * * * * * * * * * * * * * * * * * * * * * * * * * * * //

13
(
    frontAndBack
    {
        type            patch;
        nFaces          92;
        startFace       101811;
    }
    inlet
    {
        type            patch;
        nFaces          0;
        startFace       101903;
    }
    outlet
    {
        type            patch;
        nFaces          0;
        startFace       101903;
    }
    solidWall
    {
        type            wall;
        inGroups        List<word> 1(wall);
        nFaces          6595;
        startFace       101903;
    }
    procBoundary14to0
    {
        type            processor;
        inGroups        List<word> 1(processor);
        nFaces          101;
        startFace       108498;
        matchTolerance  0.0001;
        transform       unknown;
        myProcNo        14;
        neighbProcNo    0;
    }
    procBoundary14to1
    {
        type            processor;
        inGroups        List<word> 1(processor);
        nFaces          57;
        startFace       108599;
        matchTolerance  0.0001;
        transform       unknown;
        myProcNo        14;
        neighbProcNo    1;
    }
    procBoundary14to6
    {
        type            processor;
        inGroups        List<word> 1(processor);
        nFaces          614;
        startFace       108656;
        matchTolerance  0.0001;
        transform       unknown;
        myProcNo        14;
        neighbProcNo    6;
    }
    procBoundary14to7
    {
        type            processor;
        inGroups        List<word> 1(processor);
        nFaces          8;
        startFace       109270;
        matchTolerance  0.0001;
        transform       unknown;
        myProcNo        14;
        neighbProcNo    7;
    }
    procBoundary14to8
    {
        type            processor;
        inGroups        List<word> 1(processor);
        nFaces          9;
        startFace       109278;
        matchTolerance  0.0001;
        transform       unknown;
        myProcNo        14;
        neighbProcNo    8;
    }
    procBoundary14to11
    {
        type            processor;
        inGroups        List<word> 1(processor);
        nFaces          33;
        startFace       109287;
        matchTolerance  0.0001;
        transform       unknown;
        myProcNo        14;
        neighbProcNo    11;
    }
    procBoundary14to12
    {
        type            processor;
        inGroups        List<word> 1(processor);
        nFaces          645;
        startFace       109320;
        matchTolerance  0.0001;
        transform       unknown;
        myProcNo        14;
        neighbProcNo    12;
    }
    procBoundary14to13
    {
        type            processor;
        inGroups        List<word> 1(processor);
        nFaces          11;
        startFace       109965;
        matchTolerance  0.0001;
        transform       unknown;
        myProcNo        14;
        neighbProcNo    13;
    }
    procBoundary14to15
    {
        type            processor;
        inGroups        List<word> 1(processor);
        nFaces          1111;
        startFace       109976;
        matchTolerance  0.0001;
        transform       unknown;
        myProcNo        14;
        neighbProcNo    15;
    }
)

// ************************************************************************* //
