/*--------------------------------*- C++ -*----------------------------------*\
  =========                 |
  \\      /  F ield         | OpenFOAM: The Open Source CFD Toolbox
   \\    /   O peration     | Website:  https://openfoam.org
    \\  /    A nd           | Version:  7
     \\/     M anipulation  |
\*---------------------------------------------------------------------------*/
FoamFile
{
    version     2.0;
    format      ascii;
    class       polyBoundaryMesh;
    location    "constant/polyMesh";
    object      boundary;
}
// * * * * * * * * * * * * * * * * * * * * * * * * * * * * * * * * * * * * * //

11
(
    frontAndBack
    {
        type            patch;
        nFaces          81;
        startFace       100832;
    }
    inlet
    {
        type            patch;
        nFaces          0;
        startFace       100913;
    }
    outlet
    {
        type            patch;
        nFaces          0;
        startFace       100913;
    }
    solidWall
    {
        type            wall;
        inGroups        List<word> 1(wall);
        nFaces          6755;
        startFace       100913;
    }
    procBoundary4to0
    {
        type            processor;
        inGroups        List<word> 1(processor);
        nFaces          129;
        startFace       107668;
        matchTolerance  0.0001;
        transform       unknown;
        myProcNo        4;
        neighbProcNo    0;
    }
    procBoundary4to1
    {
        type            processor;
        inGroups        List<word> 1(processor);
        nFaces          47;
        startFace       107797;
        matchTolerance  0.0001;
        transform       unknown;
        myProcNo        4;
        neighbProcNo    1;
    }
    procBoundary4to2
    {
        type            processor;
        inGroups        List<word> 1(processor);
        nFaces          468;
        startFace       107844;
        matchTolerance  0.0001;
        transform       unknown;
        myProcNo        4;
        neighbProcNo    2;
    }
    procBoundary4to5
    {
        type            processor;
        inGroups        List<word> 1(processor);
        nFaces          1063;
        startFace       108312;
        matchTolerance  0.0001;
        transform       unknown;
        myProcNo        4;
        neighbProcNo    5;
    }
    procBoundary4to6
    {
        type            processor;
        inGroups        List<word> 1(processor);
        nFaces          26;
        startFace       109375;
        matchTolerance  0.0001;
        transform       unknown;
        myProcNo        4;
        neighbProcNo    6;
    }
    procBoundary4to7
    {
        type            processor;
        inGroups        List<word> 1(processor);
        nFaces          746;
        startFace       109401;
        matchTolerance  0.0001;
        transform       unknown;
        myProcNo        4;
        neighbProcNo    7;
    }
    procBoundary4to15
    {
        type            processor;
        inGroups        List<word> 1(processor);
        nFaces          50;
        startFace       110147;
        matchTolerance  0.0001;
        transform       unknown;
        myProcNo        4;
        neighbProcNo    15;
    }
)

// ************************************************************************* //
