/*--------------------------------*- C++ -*----------------------------------*\
  =========                 |
  \\      /  F ield         | OpenFOAM: The Open Source CFD Toolbox
   \\    /   O peration     | Website:  https://openfoam.org
    \\  /    A nd           | Version:  7
     \\/     M anipulation  |
\*---------------------------------------------------------------------------*/
FoamFile
{
    version     2.0;
    format      ascii;
    class       polyBoundaryMesh;
    location    "constant/polyMesh";
    object      boundary;
}
// * * * * * * * * * * * * * * * * * * * * * * * * * * * * * * * * * * * * * //

14
(
    frontAndBack
    {
        type            patch;
        nFaces          95;
        startFace       101481;
    }
    inlet
    {
        type            patch;
        nFaces          0;
        startFace       101576;
    }
    outlet
    {
        type            patch;
        nFaces          0;
        startFace       101576;
    }
    solidWall
    {
        type            wall;
        inGroups        List<word> 1(wall);
        nFaces          6861;
        startFace       101576;
    }
    procBoundary15to0
    {
        type            processor;
        inGroups        List<word> 1(processor);
        nFaces          40;
        startFace       108437;
        matchTolerance  0.0001;
        transform       unknown;
        myProcNo        15;
        neighbProcNo    0;
    }
    procBoundary15to1
    {
        type            processor;
        inGroups        List<word> 1(processor);
        nFaces          94;
        startFace       108477;
        matchTolerance  0.0001;
        transform       unknown;
        myProcNo        15;
        neighbProcNo    1;
    }
    procBoundary15to4
    {
        type            processor;
        inGroups        List<word> 1(processor);
        nFaces          50;
        startFace       108571;
        matchTolerance  0.0001;
        transform       unknown;
        myProcNo        15;
        neighbProcNo    4;
    }
    procBoundary15to6
    {
        type            processor;
        inGroups        List<word> 1(processor);
        nFaces          589;
        startFace       108621;
        matchTolerance  0.0001;
        transform       unknown;
        myProcNo        15;
        neighbProcNo    6;
    }
    procBoundary15to8
    {
        type            processor;
        inGroups        List<word> 1(processor);
        nFaces          55;
        startFace       109210;
        matchTolerance  0.0001;
        transform       unknown;
        myProcNo        15;
        neighbProcNo    8;
    }
    procBoundary15to9
    {
        type            processor;
        inGroups        List<word> 1(processor);
        nFaces          12;
        startFace       109265;
        matchTolerance  0.0001;
        transform       unknown;
        myProcNo        15;
        neighbProcNo    9;
    }
    procBoundary15to10
    {
        type            processor;
        inGroups        List<word> 1(processor);
        nFaces          3;
        startFace       109277;
        matchTolerance  0.0001;
        transform       unknown;
        myProcNo        15;
        neighbProcNo    10;
    }
    procBoundary15to12
    {
        type            processor;
        inGroups        List<word> 1(processor);
        nFaces          567;
        startFace       109280;
        matchTolerance  0.0001;
        transform       unknown;
        myProcNo        15;
        neighbProcNo    12;
    }
    procBoundary15to13
    {
        type            processor;
        inGroups        List<word> 1(processor);
        nFaces          12;
        startFace       109847;
        matchTolerance  0.0001;
        transform       unknown;
        myProcNo        15;
        neighbProcNo    13;
    }
    procBoundary15to14
    {
        type            processor;
        inGroups        List<word> 1(processor);
        nFaces          1111;
        startFace       109859;
        matchTolerance  0.0001;
        transform       unknown;
        myProcNo        15;
        neighbProcNo    14;
    }
)

// ************************************************************************* //
