/*--------------------------------*- C++ -*----------------------------------*\
  =========                 |
  \\      /  F ield         | OpenFOAM: The Open Source CFD Toolbox
   \\    /   O peration     | Website:  https://openfoam.org
    \\  /    A nd           | Version:  7
     \\/     M anipulation  |
\*---------------------------------------------------------------------------*/
FoamFile
{
    version     2.0;
    format      ascii;
    class       volScalarField;
    location    "0";
    object      T;
}
// * * * * * * * * * * * * * * * * * * * * * * * * * * * * * * * * * * * * * //

dimensions      [0 0 0 1 0 0 0];

internalField   uniform 293;

boundaryField
{
    frontAndBack
    {
        type            zeroGradient;
    }
    inlet
    {
        type            fixedValue;
        value           uniform 293;
    }
    outlet
    {
        type            zeroGradient;
    }
    solidWall
    {
        type            zeroGradient;
    }
    procBoundary0to1
    {
        type            processor;
        value           uniform 293;
    }
    procBoundary0to2
    {
        type            processor;
        value           uniform 293;
    }
    procBoundary0to3
    {
        type            processor;
        value           uniform 293;
    }
    procBoundary0to4
    {
        type            processor;
        value           uniform 293;
    }
    procBoundary0to5
    {
        type            processor;
        value           uniform 293;
    }
    procBoundary0to6
    {
        type            processor;
        value           uniform 293;
    }
    procBoundary0to7
    {
        type            processor;
        value           uniform 293;
    }
    procBoundary0to8
    {
        type            processor;
        value           uniform 293;
    }
    procBoundary0to12
    {
        type            processor;
        value           uniform 293;
    }
    procBoundary0to14
    {
        type            processor;
        value           uniform 293;
    }
    procBoundary0to15
    {
        type            processor;
        value           uniform 293;
    }
}


// ************************************************************************* //
