/*--------------------------------*- C++ -*----------------------------------*\
  =========                 |
  \\      /  F ield         | OpenFOAM: The Open Source CFD Toolbox
   \\    /   O peration     | Website:  https://openfoam.org
    \\  /    A nd           | Version:  7
     \\/     M anipulation  |
\*---------------------------------------------------------------------------*/
FoamFile
{
    version     2.0;
    format      ascii;
    class       polyBoundaryMesh;
    location    "constant/polyMesh";
    object      boundary;
}
// * * * * * * * * * * * * * * * * * * * * * * * * * * * * * * * * * * * * * //

16
(
    frontAndBack
    {
        type            patch;
        nFaces          7897;
        startFace       99977;
    }
    inlet
    {
        type            patch;
        nFaces          0;
        startFace       107874;
    }
    outlet
    {
        type            patch;
        nFaces          1808;
        startFace       107874;
    }
    solidWall
    {
        type            wall;
        inGroups        List<word> 1(wall);
        nFaces          0;
        startFace       109682;
    }
    procBoundary1to0
    {
        type            processor;
        inGroups        List<word> 1(processor);
        nFaces          449;
        startFace       109682;
        matchTolerance  0.0001;
        transform       unknown;
        myProcNo        1;
        neighbProcNo    0;
    }
    procBoundary1to4
    {
        type            processor;
        inGroups        List<word> 1(processor);
        nFaces          47;
        startFace       110131;
        matchTolerance  0.0001;
        transform       unknown;
        myProcNo        1;
        neighbProcNo    4;
    }
    procBoundary1to6
    {
        type            processor;
        inGroups        List<word> 1(processor);
        nFaces          18;
        startFace       110178;
        matchTolerance  0.0001;
        transform       unknown;
        myProcNo        1;
        neighbProcNo    6;
    }
    procBoundary1to7
    {
        type            processor;
        inGroups        List<word> 1(processor);
        nFaces          7;
        startFace       110196;
        matchTolerance  0.0001;
        transform       unknown;
        myProcNo        1;
        neighbProcNo    7;
    }
    procBoundary1to8
    {
        type            processor;
        inGroups        List<word> 1(processor);
        nFaces          203;
        startFace       110203;
        matchTolerance  0.0001;
        transform       unknown;
        myProcNo        1;
        neighbProcNo    8;
    }
    procBoundary1to9
    {
        type            processor;
        inGroups        List<word> 1(processor);
        nFaces          63;
        startFace       110406;
        matchTolerance  0.0001;
        transform       unknown;
        myProcNo        1;
        neighbProcNo    9;
    }
    procBoundary1to10
    {
        type            processor;
        inGroups        List<word> 1(processor);
        nFaces          39;
        startFace       110469;
        matchTolerance  0.0001;
        transform       unknown;
        myProcNo        1;
        neighbProcNo    10;
    }
    procBoundary1to11
    {
        type            processor;
        inGroups        List<word> 1(processor);
        nFaces          12;
        startFace       110508;
        matchTolerance  0.0001;
        transform       unknown;
        myProcNo        1;
        neighbProcNo    11;
    }
    procBoundary1to12
    {
        type            processor;
        inGroups        List<word> 1(processor);
        nFaces          19;
        startFace       110520;
        matchTolerance  0.0001;
        transform       unknown;
        myProcNo        1;
        neighbProcNo    12;
    }
    procBoundary1to13
    {
        type            processor;
        inGroups        List<word> 1(processor);
        nFaces          14;
        startFace       110539;
        matchTolerance  0.0001;
        transform       unknown;
        myProcNo        1;
        neighbProcNo    13;
    }
    procBoundary1to14
    {
        type            processor;
        inGroups        List<word> 1(processor);
        nFaces          57;
        startFace       110553;
        matchTolerance  0.0001;
        transform       unknown;
        myProcNo        1;
        neighbProcNo    14;
    }
    procBoundary1to15
    {
        type            processor;
        inGroups        List<word> 1(processor);
        nFaces          94;
        startFace       110610;
        matchTolerance  0.0001;
        transform       unknown;
        myProcNo        1;
        neighbProcNo    15;
    }
)

// ************************************************************************* //
