/*--------------------------------*- C++ -*----------------------------------*\
  =========                 |
  \\      /  F ield         | OpenFOAM: The Open Source CFD Toolbox
   \\    /   O peration     | Website:  https://openfoam.org
    \\  /    A nd           | Version:  7
     \\/     M anipulation  |
\*---------------------------------------------------------------------------*/
FoamFile
{
    version     2.0;
    format      ascii;
    class       polyBoundaryMesh;
    location    "constant/polyMesh";
    object      boundary;
}
// * * * * * * * * * * * * * * * * * * * * * * * * * * * * * * * * * * * * * //

10
(
    frontAndBack
    {
        type            patch;
        nFaces          0;
        startFace       101838;
    }
    inlet
    {
        type            patch;
        nFaces          0;
        startFace       101838;
    }
    outlet
    {
        type            patch;
        nFaces          0;
        startFace       101838;
    }
    solidWall
    {
        type            wall;
        inGroups        List<word> 1(wall);
        nFaces          6894;
        startFace       101838;
    }
    procBoundary12to0
    {
        type            processor;
        inGroups        List<word> 1(processor);
        nFaces          2;
        startFace       108732;
        matchTolerance  0.0001;
        transform       unknown;
        myProcNo        12;
        neighbProcNo    0;
    }
    procBoundary12to1
    {
        type            processor;
        inGroups        List<word> 1(processor);
        nFaces          19;
        startFace       108734;
        matchTolerance  0.0001;
        transform       unknown;
        myProcNo        12;
        neighbProcNo    1;
    }
    procBoundary12to8
    {
        type            processor;
        inGroups        List<word> 1(processor);
        nFaces          4;
        startFace       108753;
        matchTolerance  0.0001;
        transform       unknown;
        myProcNo        12;
        neighbProcNo    8;
    }
    procBoundary12to13
    {
        type            processor;
        inGroups        List<word> 1(processor);
        nFaces          1334;
        startFace       108757;
        matchTolerance  0.0001;
        transform       unknown;
        myProcNo        12;
        neighbProcNo    13;
    }
    procBoundary12to14
    {
        type            processor;
        inGroups        List<word> 1(processor);
        nFaces          645;
        startFace       110091;
        matchTolerance  0.0001;
        transform       unknown;
        myProcNo        12;
        neighbProcNo    14;
    }
    procBoundary12to15
    {
        type            processor;
        inGroups        List<word> 1(processor);
        nFaces          567;
        startFace       110736;
        matchTolerance  0.0001;
        transform       unknown;
        myProcNo        12;
        neighbProcNo    15;
    }
)

// ************************************************************************* //
