/*--------------------------------*- C++ -*----------------------------------*\
  =========                 |
  \\      /  F ield         | OpenFOAM: The Open Source CFD Toolbox
   \\    /   O peration     | Website:  https://openfoam.org
    \\  /    A nd           | Version:  7
     \\/     M anipulation  |
\*---------------------------------------------------------------------------*/
FoamFile
{
    version     2.0;
    format      ascii;
    class       polyBoundaryMesh;
    location    "constant/polyMesh";
    object      boundary;
}
// * * * * * * * * * * * * * * * * * * * * * * * * * * * * * * * * * * * * * //


4
(
frontAndBack
{
    type patch;
    nFaces 13136;
    startFace 1636114;
}

inlet
{
    type patch;
    nFaces 1753;
    startFace 1649250;
}

outlet
{
    type patch;
    nFaces 1808;
    startFace 1651003;
}

solidWall
{
    type wall;
    nFaces 97194;
    startFace 1652811;
}

)


// ************************************************************************* //
