/*--------------------------------*- C++ -*----------------------------------*\
  =========                 |
  \\      /  F ield         | OpenFOAM: The Open Source CFD Toolbox
   \\    /   O peration     | Website:  https://openfoam.org
    \\  /    A nd           | Version:  7
     \\/     M anipulation  |
\*---------------------------------------------------------------------------*/
FoamFile
{
    version     2.0;
    format      ascii;
    class       polyBoundaryMesh;
    location    "constant/polyMesh";
    object      boundary;
}
// * * * * * * * * * * * * * * * * * * * * * * * * * * * * * * * * * * * * * //

10
(
    frontAndBack
    {
        type            patch;
        nFaces          0;
        startFace       102329;
    }
    inlet
    {
        type            patch;
        nFaces          0;
        startFace       102329;
    }
    outlet
    {
        type            patch;
        nFaces          0;
        startFace       102329;
    }
    solidWall
    {
        type            wall;
        inGroups        List<word> 1(wall);
        nFaces          6991;
        startFace       102329;
    }
    procBoundary10to1
    {
        type            processor;
        inGroups        List<word> 1(processor);
        nFaces          39;
        startFace       109320;
        matchTolerance  0.0001;
        transform       unknown;
        myProcNo        10;
        neighbProcNo    1;
    }
    procBoundary10to8
    {
        type            processor;
        inGroups        List<word> 1(processor);
        nFaces          153;
        startFace       109359;
        matchTolerance  0.0001;
        transform       unknown;
        myProcNo        10;
        neighbProcNo    8;
    }
    procBoundary10to9
    {
        type            processor;
        inGroups        List<word> 1(processor);
        nFaces          703;
        startFace       109512;
        matchTolerance  0.0001;
        transform       unknown;
        myProcNo        10;
        neighbProcNo    9;
    }
    procBoundary10to11
    {
        type            processor;
        inGroups        List<word> 1(processor);
        nFaces          1118;
        startFace       110215;
        matchTolerance  0.0001;
        transform       unknown;
        myProcNo        10;
        neighbProcNo    11;
    }
    procBoundary10to13
    {
        type            processor;
        inGroups        List<word> 1(processor);
        nFaces          427;
        startFace       111333;
        matchTolerance  0.0001;
        transform       unknown;
        myProcNo        10;
        neighbProcNo    13;
    }
    procBoundary10to15
    {
        type            processor;
        inGroups        List<word> 1(processor);
        nFaces          3;
        startFace       111760;
        matchTolerance  0.0001;
        transform       unknown;
        myProcNo        10;
        neighbProcNo    15;
    }
)

// ************************************************************************* //
