/*--------------------------------*- C++ -*----------------------------------*\
  =========                 |
  \\      /  F ield         | OpenFOAM: The Open Source CFD Toolbox
   \\    /   O peration     | Website:  https://openfoam.org
    \\  /    A nd           | Version:  7
     \\/     M anipulation  |
\*---------------------------------------------------------------------------*/
FoamFile
{
    version     2.0;
    format      ascii;
    class       polyBoundaryMesh;
    location    "constant/polyMesh";
    object      boundary;
}
// * * * * * * * * * * * * * * * * * * * * * * * * * * * * * * * * * * * * * //

9
(
    frontAndBack
    {
        type            patch;
        nFaces          32;
        startFace       101024;
    }
    inlet
    {
        type            patch;
        nFaces          0;
        startFace       101056;
    }
    outlet
    {
        type            patch;
        nFaces          0;
        startFace       101056;
    }
    solidWall
    {
        type            wall;
        inGroups        List<word> 1(wall);
        nFaces          6650;
        startFace       101056;
    }
    procBoundary11to1
    {
        type            processor;
        inGroups        List<word> 1(processor);
        nFaces          12;
        startFace       107706;
        matchTolerance  0.0001;
        transform       unknown;
        myProcNo        11;
        neighbProcNo    1;
    }
    procBoundary11to8
    {
        type            processor;
        inGroups        List<word> 1(processor);
        nFaces          486;
        startFace       107718;
        matchTolerance  0.0001;
        transform       unknown;
        myProcNo        11;
        neighbProcNo    8;
    }
    procBoundary11to10
    {
        type            processor;
        inGroups        List<word> 1(processor);
        nFaces          1118;
        startFace       108204;
        matchTolerance  0.0001;
        transform       unknown;
        myProcNo        11;
        neighbProcNo    10;
    }
    procBoundary11to13
    {
        type            processor;
        inGroups        List<word> 1(processor);
        nFaces          671;
        startFace       109322;
        matchTolerance  0.0001;
        transform       unknown;
        myProcNo        11;
        neighbProcNo    13;
    }
    procBoundary11to14
    {
        type            processor;
        inGroups        List<word> 1(processor);
        nFaces          33;
        startFace       109993;
        matchTolerance  0.0001;
        transform       unknown;
        myProcNo        11;
        neighbProcNo    14;
    }
)

// ************************************************************************* //
