/*--------------------------------*- C++ -*----------------------------------*\
  =========                 |
  \\      /  F ield         | OpenFOAM: The Open Source CFD Toolbox
   \\    /   O peration     | Website:  https://openfoam.org
    \\  /    A nd           | Version:  7
     \\/     M anipulation  |
\*---------------------------------------------------------------------------*/
FoamFile
{
    version     2.0;
    format      ascii;
    class       polyBoundaryMesh;
    location    "constant/polyMesh";
    object      boundary;
}
// * * * * * * * * * * * * * * * * * * * * * * * * * * * * * * * * * * * * * //

13
(
    frontAndBack
    {
        type            patch;
        nFaces          1832;
        startFace       100795;
    }
    inlet
    {
        type            patch;
        nFaces          782;
        startFace       102627;
    }
    outlet
    {
        type            patch;
        nFaces          0;
        startFace       103409;
    }
    solidWall
    {
        type            wall;
        inGroups        List<word> 1(wall);
        nFaces          4895;
        startFace       103409;
    }
    procBoundary8to0
    {
        type            processor;
        inGroups        List<word> 1(processor);
        nFaces          122;
        startFace       108304;
        matchTolerance  0.0001;
        transform       unknown;
        myProcNo        8;
        neighbProcNo    0;
    }
    procBoundary8to1
    {
        type            processor;
        inGroups        List<word> 1(processor);
        nFaces          203;
        startFace       108426;
        matchTolerance  0.0001;
        transform       unknown;
        myProcNo        8;
        neighbProcNo    1;
    }
    procBoundary8to9
    {
        type            processor;
        inGroups        List<word> 1(processor);
        nFaces          1234;
        startFace       108629;
        matchTolerance  0.0001;
        transform       unknown;
        myProcNo        8;
        neighbProcNo    9;
    }
    procBoundary8to10
    {
        type            processor;
        inGroups        List<word> 1(processor);
        nFaces          153;
        startFace       109863;
        matchTolerance  0.0001;
        transform       unknown;
        myProcNo        8;
        neighbProcNo    10;
    }
    procBoundary8to11
    {
        type            processor;
        inGroups        List<word> 1(processor);
        nFaces          486;
        startFace       110016;
        matchTolerance  0.0001;
        transform       unknown;
        myProcNo        8;
        neighbProcNo    11;
    }
    procBoundary8to12
    {
        type            processor;
        inGroups        List<word> 1(processor);
        nFaces          4;
        startFace       110502;
        matchTolerance  0.0001;
        transform       unknown;
        myProcNo        8;
        neighbProcNo    12;
    }
    procBoundary8to13
    {
        type            processor;
        inGroups        List<word> 1(processor);
        nFaces          26;
        startFace       110506;
        matchTolerance  0.0001;
        transform       unknown;
        myProcNo        8;
        neighbProcNo    13;
    }
    procBoundary8to14
    {
        type            processor;
        inGroups        List<word> 1(processor);
        nFaces          9;
        startFace       110532;
        matchTolerance  0.0001;
        transform       unknown;
        myProcNo        8;
        neighbProcNo    14;
    }
    procBoundary8to15
    {
        type            processor;
        inGroups        List<word> 1(processor);
        nFaces          55;
        startFace       110541;
        matchTolerance  0.0001;
        transform       unknown;
        myProcNo        8;
        neighbProcNo    15;
    }
)

// ************************************************************************* //
