/*--------------------------------*- C++ -*----------------------------------*\
  =========                 |
  \\      /  F ield         | OpenFOAM: The Open Source CFD Toolbox
   \\    /   O peration     | Website:  https://openfoam.org
    \\  /    A nd           | Version:  7
     \\/     M anipulation  |
\*---------------------------------------------------------------------------*/
FoamFile
{
    version     2.0;
    format      ascii;
    class       dictionary;
    location    "constant/polyMesh";
    object      meshMetaDict;
}
// * * * * * * * * * * * * * * * * * * * * * * * * * * * * * * * * * * * * * //

surfaceFile     "control.fms";

surfaceMeta
{
    nPoints         940;
    nFacets         1872;
    nPatches        4;
    nFeatureEdges   105;
    patches
    {
        frontAndBack
        {
            type            patch;
            nFacets         8;
        }
        inlet
        {
            type            patch;
            nFacets         2;
        }
        outlet
        {
            type            patch;
            nFacets         2;
        }
        solidWall
        {
            type            wall;
            nFacets         1860;
        }
    }
    pointSubsets
    {
    }
    facetSubsets
    {
    }
    featureEdgeSubsets
    {
    }
}
