/*--------------------------------*- C++ -*----------------------------------*\
  =========                 |
  \\      /  F ield         | OpenFOAM: The Open Source CFD Toolbox
   \\    /   O peration     | Website:  https://openfoam.org
    \\  /    A nd           | Version:  7
     \\/     M anipulation  |
\*---------------------------------------------------------------------------*/
FoamFile
{
    version     2.0;
    format      ascii;
    class       polyBoundaryMesh;
    location    "constant/polyMesh";
    object      boundary;
}
// * * * * * * * * * * * * * * * * * * * * * * * * * * * * * * * * * * * * * //

15
(
    frontAndBack
    {
        type            patch;
        nFaces          3089;
        startFace       99138;
    }
    inlet
    {
        type            patch;
        nFaces          971;
        startFace       102227;
    }
    outlet
    {
        type            patch;
        nFaces          0;
        startFace       103198;
    }
    solidWall
    {
        type            wall;
        inGroups        List<word> 1(wall);
        nFaces          3915;
        startFace       103198;
    }
    procBoundary0to1
    {
        type            processor;
        inGroups        List<word> 1(processor);
        nFaces          449;
        startFace       107113;
        matchTolerance  0.0001;
        transform       unknown;
        myProcNo        0;
        neighbProcNo    1;
    }
    procBoundary0to2
    {
        type            processor;
        inGroups        List<word> 1(processor);
        nFaces          52;
        startFace       107562;
        matchTolerance  0.0001;
        transform       unknown;
        myProcNo        0;
        neighbProcNo    2;
    }
    procBoundary0to3
    {
        type            processor;
        inGroups        List<word> 1(processor);
        nFaces          1277;
        startFace       107614;
        matchTolerance  0.0001;
        transform       unknown;
        myProcNo        0;
        neighbProcNo    3;
    }
    procBoundary0to4
    {
        type            processor;
        inGroups        List<word> 1(processor);
        nFaces          129;
        startFace       108891;
        matchTolerance  0.0001;
        transform       unknown;
        myProcNo        0;
        neighbProcNo    4;
    }
    procBoundary0to5
    {
        type            processor;
        inGroups        List<word> 1(processor);
        nFaces          77;
        startFace       109020;
        matchTolerance  0.0001;
        transform       unknown;
        myProcNo        0;
        neighbProcNo    5;
    }
    procBoundary0to6
    {
        type            processor;
        inGroups        List<word> 1(processor);
        nFaces          17;
        startFace       109097;
        matchTolerance  0.0001;
        transform       unknown;
        myProcNo        0;
        neighbProcNo    6;
    }
    procBoundary0to7
    {
        type            processor;
        inGroups        List<word> 1(processor);
        nFaces          45;
        startFace       109114;
        matchTolerance  0.0001;
        transform       unknown;
        myProcNo        0;
        neighbProcNo    7;
    }
    procBoundary0to8
    {
        type            processor;
        inGroups        List<word> 1(processor);
        nFaces          122;
        startFace       109159;
        matchTolerance  0.0001;
        transform       unknown;
        myProcNo        0;
        neighbProcNo    8;
    }
    procBoundary0to12
    {
        type            processor;
        inGroups        List<word> 1(processor);
        nFaces          2;
        startFace       109281;
        matchTolerance  0.0001;
        transform       unknown;
        myProcNo        0;
        neighbProcNo    12;
    }
    procBoundary0to14
    {
        type            processor;
        inGroups        List<word> 1(processor);
        nFaces          101;
        startFace       109283;
        matchTolerance  0.0001;
        transform       unknown;
        myProcNo        0;
        neighbProcNo    14;
    }
    procBoundary0to15
    {
        type            processor;
        inGroups        List<word> 1(processor);
        nFaces          40;
        startFace       109384;
        matchTolerance  0.0001;
        transform       unknown;
        myProcNo        0;
        neighbProcNo    15;
    }
)

// ************************************************************************* //
