/*--------------------------------*- C++ -*----------------------------------*\
  =========                 |
  \\      /  F ield         | OpenFOAM: The Open Source CFD Toolbox
   \\    /   O peration     | Website:  https://openfoam.org
    \\  /    A nd           | Version:  7
     \\/     M anipulation  |
\*---------------------------------------------------------------------------*/
FoamFile
{
    version     2.0;
    format      ascii;
    class       polyBoundaryMesh;
    location    "constant/polyMesh";
    object      boundary;
}
// * * * * * * * * * * * * * * * * * * * * * * * * * * * * * * * * * * * * * //

10
(
    frontAndBack
    {
        type            patch;
        nFaces          0;
        startFace       102230;
    }
    inlet
    {
        type            patch;
        nFaces          0;
        startFace       102230;
    }
    outlet
    {
        type            patch;
        nFaces          0;
        startFace       102230;
    }
    solidWall
    {
        type            wall;
        inGroups        List<word> 1(wall);
        nFaces          6904;
        startFace       102230;
    }
    procBoundary6to0
    {
        type            processor;
        inGroups        List<word> 1(processor);
        nFaces          17;
        startFace       109134;
        matchTolerance  0.0001;
        transform       unknown;
        myProcNo        6;
        neighbProcNo    0;
    }
    procBoundary6to1
    {
        type            processor;
        inGroups        List<word> 1(processor);
        nFaces          18;
        startFace       109151;
        matchTolerance  0.0001;
        transform       unknown;
        myProcNo        6;
        neighbProcNo    1;
    }
    procBoundary6to4
    {
        type            processor;
        inGroups        List<word> 1(processor);
        nFaces          26;
        startFace       109169;
        matchTolerance  0.0001;
        transform       unknown;
        myProcNo        6;
        neighbProcNo    4;
    }
    procBoundary6to7
    {
        type            processor;
        inGroups        List<word> 1(processor);
        nFaces          1179;
        startFace       109195;
        matchTolerance  0.0001;
        transform       unknown;
        myProcNo        6;
        neighbProcNo    7;
    }
    procBoundary6to14
    {
        type            processor;
        inGroups        List<word> 1(processor);
        nFaces          614;
        startFace       110374;
        matchTolerance  0.0001;
        transform       unknown;
        myProcNo        6;
        neighbProcNo    14;
    }
    procBoundary6to15
    {
        type            processor;
        inGroups        List<word> 1(processor);
        nFaces          589;
        startFace       110988;
        matchTolerance  0.0001;
        transform       unknown;
        myProcNo        6;
        neighbProcNo    15;
    }
)

// ************************************************************************* //
